Version 4
SHEET 1 880 680
WIRE 80 128 -208 128
WIRE 256 128 224 128
WIRE 80 160 48 160
WIRE 256 160 224 160
WIRE -208 240 -208 128
WIRE 448 240 448 128
WIRE 160 256 160 208
WIRE -208 384 -208 320
WIRE 160 384 160 336
WIRE 160 384 -208 384
WIRE 448 384 448 320
WIRE 448 384 160 384
FLAG 256 128 Vdd
FLAG 448 128 Vdd
FLAG 48 160 out
FLAG 256 160 out
SYMBOL Folded_cascode 144 160 R0
SYMATTR InstName X1
SYMBOL voltage 448 224 R0
SYMATTR InstName V1
SYMATTR Value 2.5
SYMBOL voltage -208 224 R0
SYMATTR InstName V2
SYMATTR Value 0
SYMBOL current 160 336 M180
WINDOW 0 24 80 Left 2
WINDOW 3 24 0 Left 2
SYMATTR InstName I1
SYMATTR Value 11µ
TEXT 640 104 Left 2 !.lib PSM025.mos
TEXT 640 128 Left 2 !.dc V2 0 2.5 0.01
