Version 4
SHEET 1 916 680
WIRE 112 16 -128 16
WIRE 448 16 256 16
WIRE 112 48 0 48
WIRE 288 48 256 48
WIRE -64 64 -288 64
WIRE -128 128 -128 16
WIRE 0 128 0 48
WIRE -64 144 -64 64
WIRE -64 144 -80 144
WIRE -48 144 -64 144
WIRE -64 192 -80 192
WIRE -48 192 -64 192
WIRE -64 224 -64 192
WIRE -64 224 -144 224
WIRE 448 240 448 16
WIRE -128 256 -128 208
WIRE -64 256 -128 256
WIRE 0 256 0 208
WIRE 0 256 -64 256
WIRE -288 272 -288 64
WIRE -64 272 -64 256
WIRE 192 288 192 96
WIRE -288 400 -288 352
WIRE -144 400 -144 224
WIRE -144 400 -288 400
WIRE -64 400 -64 352
WIRE -64 400 -144 400
WIRE 192 400 192 368
WIRE 192 400 -64 400
WIRE 448 400 448 320
WIRE 448 400 192 400
WIRE 192 416 192 400
FLAG 192 416 0
FLAG 288 48 out
SYMBOL Folded_cascode 176 48 R0
SYMATTR InstName X1
SYMBOL current 192 368 M180
WINDOW 0 24 80 Left 2
WINDOW 3 24 0 Left 2
SYMATTR InstName I1
SYMATTR Value 11µ
SYMBOL voltage 448 224 R0
SYMATTR InstName V1
SYMATTR Value 2.5
SYMBOL voltage -288 256 R0
SYMATTR InstName Vd
SYMATTR Value 0
SYMBOL voltage -64 256 R0
WINDOW 123 0 0 Left 0
WINDOW 39 0 0 Left 0
SYMATTR InstName Vc
SYMATTR Value 1.25
SYMBOL e 0 112 R0
SYMATTR InstName E1
SYMATTR Value -0.5
SYMBOL e -128 112 M0
SYMATTR InstName E2
SYMATTR Value 0.5
TEXT 664 64 Left 2 !.lib PSM025.mos
TEXT 664 96 Left 2 !.op
TEXT 664 128 Left 2 ;.dc Vd -10m 10m 10u
